function mpc = case1888_loading_1_365
%CASE1888_LOADING_1_365

%% MATPOWER Case Format : Version 2
mpc.version = '2';

%%-----  Power Flow Data  -----%%
%% system MVA base
mpc.baseMVA = 100;

%% bus data
%	bus_i	type	Pd	Qd	Gs	Bs	area	Vm	Va	baseKV	zone	Vmax	Vmin
mpc.bus = [
	1	1	7.917	-7.917	0	0	1	1.03128805	-18.749233	225	1	1.08889	0.888889;
	2	1	0	0	0	0	1	1.0673872	28.562718	380	1	1.10263	1.04841;
	3	1	194.5125	-18.291	0	0	1	1.04658235	4.391432	225	1	1.08444	1.00444;
	4	1	0	0	0	0	1	1.08319834	13.070786	150	1	1.10667	0.9;
	5	1	44.772	-7.2345	0	0	1	1.07702044	6.526503	225	1	1.08889	0.933333;
	6	1	54.873	5.46	0	0	1	1.07320309	6.113541	225	1	1.08889	0.933333;
	7	1	0	0	0	0	1	1.07277601	9.889429	380	1	1.10526	1.03947;
	8	1	0	0	0	0	1	1.06948511	9.641265	380	1	1.10526	1.03947;
	9	1	0	0	0	0	1	1.04481917	-12.70132	225	1	1.09035	1.00444;
	10	1	203.112	20.3385	0	0	1	1.04951276	-0.658977	225	1	1.08889	0.933333;
	11	1	34.944	6.825	0	0	1	1.0459501	-15.836983	225	1	1.08889	1.00444;
	12	1	53.3715	11.8755	0	0	1	1.02639077	-15.192312	225	1	1.08889	1.00444;
	13	1	96.2325	23.478	0	0	1	1.04596488	-15.833549	225	1	1.08889	1.00444;
	14	1	49.14	-5.733	0	0	1	1.03293001	-17.624907	225	1	1.08252	0.95;
	15	1	0	0	0	0	1	1.06561765	-6.670297	225	1	1.08889	1.00444;
	16	1	0	0	0	0	1	1.06561769	-6.670298	225	1	1.08889	1.00444;
	17	1	32.3505	-16.926	0	0	1	1.03239013	-17.785693	225	1	1.08889	0.888889;
	18	1	8.0535	-6.552	0	0	1	1.04779388	-4.758559	225	1	1.09633	0.986667;
	19	1	46.41	5.0505	0	0	1	1.03332704	-15.863365	225	1	1.08889	1.00444;
	20	1	9.4185	1.092	0	0	1	1.03336337	-15.860218	225	1	1.08889	1.00444;
	21	1	12.558	-39.7215	0	0	1	1.06026631	-11.649658	225	1	1.08889	1.00444;
	22	1	92.4105	-4.914	0	0	1	1.05405048	-11.015097	225	1	1.08889	0.986667;
	23	1	34.671	-3.6855	0	0	1	1.02045392	-22.815649	225	1	1.08889	0.888889;
	24	1	87.36	6.279	0	0	1	1.0419219	7.422329	225	1	1.08444	1.00889;
	25	1	97.734	63.7455	0	0	1	1.0327146	10.563879	225	1	1.08889	0.933333;
	26	1	143.871	9.4185	0	0	1	1.03627901	-12.009647	225	1	1.08889	1.00444;
	27	1	0	0	0	0	1	1.06750722	28.577109	380	1	1.10526	1.04842;
	28	1	0	0	0	0	1	1.06761194	28.594476	380	1	1.10526	1.04842;
	29	1	29.6205	1.2285	0	0	1	1.05467633	23.272667	225	1	1.08444	1.00889;
	30	1	94.0485	3.549	0	0	1	1.05208703	21.757488	225	1	1.08444	1.00889;
	31	1	69.069	17.3355	0	0	1	1.04607056	-15.724803	225	1	1.08889	1.00444;
	32	1	23.205	2.8665	0	0	1	1.03414611	8.81872	150	1	1.08	0.966667;
	33	1	52.143	8.5995	0	0	1	1.03660669	-16.38791	225	1	1.09212	1;
	34	1	0	0	0	0	1	1.05189575	-12.982871	380	1	1.10526	1.04785;
	35	1	121.485	13.104	0	0	1	1.0467617	-12.533041	225	1	1.08889	0.986667;
	36	1	0	0	0	-64	1	1.0285516	-18.471846	20	1	1.5	0.8;
	37	1	96.7785	-3.1395	0	0	1	1.0323635	-17.505777	225	1	1.08889	0.968889;
	38	1	185.913	-14.6055	0	0	1	1.03873156	-13.392619	380	1	1.10526	1;
	39	1	88.179	23.6145	0	0	1	1.06056292	0.593092	225	1	1.08889	0.933333;
	40	1	18.291	4.5045	0	0	1	1.02821205	-22.458748	225	1	1.08889	0.888889;
	41	1	45.4545	6.4155	0	0	1	1.02797484	-22.518815	225	1	1.08889	0.888889;
	42	1	288.834	-1.7745	0	0	1	1.0551636	-3.979244	225	1	1.08496	1.00444;
	43	1	125.7165	-12.4215	0	0	1	1.06339084	-13.190671	225	1	1.08889	1.00444;
	44	2	0	0	0	0	1	1.08432111	13.911328	150	1	1.10843	0.9;
	45	1	0	0	0	0	1	1.03434145	-16.687391	225	1	1.08889	1.00444;
	46	1	0	0	0	0	1	1.03434124	-16.687389	225	1	1.08889	1.00444;
	47	1	86.9505	115.3425	0	-80	1	1.03434	-16.687382	225	1	1.08889	1.00444;
	48	1	14.196	9.009	0	0	1	1.03441492	-12.473381	225	1	1.08889	1.00444;
	49	1	0	0	0	0	1	1.06185522	3.508789	225	1	1.08889	1;
	50	1	93.7755	22.5225	0	0	1	1.01766063	-22.872055	225	1	1.08889	0.888889;
	51	1	138.138	21.7035	0	0	1	1.01005614	-21.191789	225	1	1.08889	0.968889;
	52	1	0	0	0	0	1	1.01544164	-18.735592	380	1	1.10526	1;
	53	1	39.4485	14.469	0	0	1	1.04158599	22.179336	225	1	1.08444	1.00889;
	54	1	38.493	2.8665	0	0	1	1.04184141	22.177457	225	1	1.08444	1.00889;
	55	1	149.604	-17.6085	0	0	1	1.04624691	-11.932005	225	1	1.08889	1.00444;
	56	1	37.2645	-14.8785	0	0	1	1.05229216	3.102457	225	1	1.08945	0.933333;
	57	2	0	0	0	0	1	1.08245999	13.66675	150	1	1.10862	0.9;
	58	1	50.232	27.7095	0	0	1	1.04710395	26.076167	225	1	1.08444	1.00889;
	59	1	49.8225	42.042	0	0	1	1.04687521	26.078883	225	1	1.08444	1.00889;
	60	1	0	0	0	0	1	1.05020868	25.325969	225	1	1.08889	0.977778;
	61	1	11.466	-0.4095	0	0	1	1.03890596	-19.914114	225	1	1.08889	0.888889;
	62	1	18.018	-8.5995	0	0	1	1.07568117	7.041411	225	1	1.08889	0.933333;
	63	1	18.018	4.5045	0	0	1	1.02565911	-15.376709	225	1	1.08889	1.00444;
	64	1	30.9855	3.4125	0	0	1	1.04480096	-12.766666	225	1	1.08889	1.00444;
	65	1	15.561	-13.2405	0	0	1	1.06316143	3.189632	225	1	1.08889	1;
	66	1	13.923	-1.7745	0	0	1	1.03844389	-7.675423	225	1	1.08889	0.986667;
	67	1	0	0	0	0	1	1.03274452	-21.763032	225	1	1.08889	0.888889;
	68	1	0	0	0	0	1	1.02329399	-22.256839	225	1	1.08889	0.888889;
	69	1	0	0	0	0	1	1.03584758	-19.581907	380	1	1.10526	1.01316;
	70	1	53.508	3.822	0	0	1	1.03391508	-16.071617	225	1	1.08889	1.00444;
	71	1	26.3445	4.5045	0	-80	1	1.03464339	-14.875102	225	1	1.08889	1.00444;
	72	1	0	0	0	0	1	1.04638353	21.908606	225	1	1.08889	0.977778;
	73	1	0	0	0	0	1	1.0463805	21.908976	225	1	1.08889	0.977778;
	74	1	180.0435	4.368	0	0	1	1.04473074	21.243064	225	1	1.08444	1.00889;
	75	1	0	0	0	0	1	1.05468655	1.17106	225	1	1.08444	1.00444;
	76	1	0	0	0	0	1	1.05395583	7.306185	380	1	1.10263	1.04211;
	77	1	129.129	-2.5935	0	0	1	1.05454271	1.109587	225	1	1.08444	1.00444;
	78	1	-2.3205	-6.279	0	0	1	1.0271657	-15.063938	225	1	1.08936	1.00444;
	79	1	4.914	-9.828	0	0	1	1.02716407	-15.069424	225	1	1.08936	1.00444;
	80	1	48.321	14.8785	0	0	1	1.03602002	-14.10011	225	1	1.08889	0.888889;
	81	1	20.6115	0.9555	0	0	1	1.02564673	-20.466687	225	1	1.08124	0.95;
	82	1	78.351	24.57	0	0	1	1.02671888	-19.753246	225	1	1.08889	0.888889;
	83	1	122.7135	-7.917	0	0	1	1.05538302	0.599627	225	1	1.08889	1;
	84	1	0	0	0	0	1	1.02166532	6.437648	225	1	1.08889	1;
	85	1	327.327	23.8875	0	0	1	1.05913705	6.452919	380	1	1.10526	1.0507;
	86	1	48.4575	21.84	0	0	1	1.03301305	10.579386	225	1	1.08889	1;
	87	1	103.8765	31.395	0	0	1	1.05905296	3.513039	225	1	1.08889	1;
	88	2	0	0	0	0	1	1.01322758	14.352145	150	1	1.1	0.9;
	89	1	29.0745	16.38	0	0	1	1.01553937	-7.585905	225	1	1.08889	0.986667;
	90	1	15.288	-7.098	0	0	1	1.03785843	20.16845	225	1	1.08444	1.00889;
	91	1	0	0	0	0	1	1.05981506	-3.800108	380	1	1.10526	1.04211;
	92	1	0	0	0	0	1	1.0607709	-4.291066	380	1	1.10526	1.04211;
	93	1	15.9705	1.7745	0	0	1	1.05529695	0.744995	225	1	1.08889	1;
	94	1	8.3265	1.911	0	0	1	1.06410389	-8.513853	225	1	1.08889	1.00444;
	95	1	43.134	3.549	0	0	1	1.06680918	10.500589	150	1	1.1	0.9;
	96	1	94.0485	-15.9705	0	0	1	1.05979144	-0.4697	225	1	1.08889	1;
	97	2	0.273	0	0	0	1	1.03375666	-15.871259	225	1	1.08294	0.95;
	98	1	0	0	0	0	1	1.07671343	6.402328	225	1	1.08889	0.933333;
	99	1	0	0	0	0	1	1.06989081	9.687318	380	1	1.10526	1.03947;
	100	1	0	0	0	0	1	1.07308113	9.927725	380	1	1.10526	1.03947;
	101	1	0	0	0	0	1	1.0462554	-15.816727	225	1	1.08889	1.00444;
	102	1	41.0865	5.187	0	0	1	1.03195905	-17.889443	225	1	1.08889	1.00444;
	103	1	0	0	0	0	1	1.01568526	-8.501321	225	1	1.08889	0.986667;
	104	1	16.5165	6.1425	0	0	1	1.04606161	-15.82828	225	1	1.08889	1.00444;
	105	1	144.8265	-0.4095	0	0	1	1.03363823	2.306671	225	1	1.08889	0.933333;
	106	1	0	0	0	0	1	1.04418277	4.217864	380	1	1.10526	1.03947;
	107	1	59.1045	11.466	0	0	1	1.06070853	2.836105	225	1	1.08889	1;
	108	1	45.318	-10.2375	0	0	1	1.06573284	-12.534453	225	1	1.08986	1.00444;
	109	1	135.8175	-16.926	0	0	1	1.06218239	-7.081476	225	1	1.09612	1;
	110	1	158.886	-9.1455	0	0	1	1.04294177	-6.744123	225	1	1.08889	0.986667;
	111	1	89.6805	20.0655	0	0	1	1.04480187	-12.69815	225	1	1.09036	1.00444;
	112	1	146.328	28.938	0	0	1	1.01634198	-23.062901	225	1	1.08889	0.924444;
	113	1	77.6685	-3.6855	0	0	1	1.05701032	-1.180476	225	1	1.09614	0.986667;
	114	1	0	0	0	0	1	1.06343567	-0.700898	380	1	1.10526	1.03947;
	115	1	168.714	-27.027	0	0	1	1.03952993	-7.388839	225	1	1.08444	1.00444;
	116	1	0	0	0	-64	1	0.99249269	8.4189	20	1	1.4	0.8;
	117	1	45.4545	-29.0745	0	0	1	1.0420323	8.868794	225	1	1.08444	1.00889;
	118	1	0	0	0	0	1	1.04018712	12.099062	380	1	1.10263	1.02895;
	119	1	2.3205	-6.006	0	0	1	1.03431993	2.284944	225	1	1.08889	0.933333;
	120	1	191.5095	23.6145	0	0	1	1.03731665	10.279782	225	1	1.08889	0.933333;
	121	1	46.0005	-2.457	0	0	1	1.06544918	-12.016092	63	1	1.07937	0.920635;
	122	2	0	0	0	0	1	1.05561411	19.096672	225	1	1.07476	0.95;
	123	1	-2.5935	-7.371	0	0	1	1.08224169	11.969241	225	1	1.09768	1;
	124	1	0	0	0	0	1	1.07619842	12.000837	380	1	1.10526	1.05263;
	125	1	0	0	0	0	1	1.07627377	12.004248	380	1	1.10526	1.05263;
	126	1	0	0	0	0	1	1.07628225	12.008221	380	1	1.10526	1.05263;
	127	1	0	0	0	0	1	1.07625266	11.990671	380	1	1.10526	1.05263;
	128	1	0	0	0	0	1	1.05704097	-1.027814	225	1	1.09645	0.986667;
	129	1	0	0	0	0	1	1.05719981	-0.977246	225	1	1.09645	0.986667;
	130	1	0	0	0	0	1	1.06343819	-0.547381	380	1	1.10526	1.03947;
	131	1	105.5145	-14.469	0	0	1	1.03237369	-19.393397	225	1	1.08889	0.968889;
	132	1	38.3565	5.187	0	0	1	1.04183821	7.468809	225	1	1.08444	1.00889;
	133	1	-7.098	-12.831	0	0	1	1.05055031	-8.144946	380	1	1.10526	1.03947;
	134	1	145.236	10.92	0	0	1	1.05889588	11.581159	225	1	1.08889	0.933333;
	135	1	0	0	0	0	1	1.06219618	16.438156	380	1	1.10526	1.03947;
	136	1	155.2005	-11.3295	0	0	1	1.04566301	24.743555	225	1	1.08444	1.00889;
	137	1	60.879	0.6825	0	0	1	1.04694756	24.585195	225	1	1.08444	1.00889;
	138	1	225.498	-16.107	0	0	1	1.03505582	5.611568	225	1	1.08444	1.00444;
	139	1	39.858	2.8665	0	0	1	1.06172356	11.057487	225	1	1.08889	0.933333;
	140	1	44.772	6.006	0	0	1	1.06168275	11.051617	225	1	1.08889	0.933333;
	141	1	25.935	-24.7065	0	0	1	1.06572032	-12.512743	225	1	1.08952	1.00444;
	142	1	0	0	0	0	1	1.04575682	3.809951	225	1	1.09478	1;
	143	1	0	0	0	0	1	1.0457549	3.809973	225	1	1.09478	1;
	144	1	50.6415	7.644	0	0	1	1.0554274	0.992956	225	1	1.08889	1;
	145	1	27.3	-5.3235	0	0	1	1.06427075	-8.414955	225	1	1.08889	1.00444;
	146	1	52.0065	2.184	0	0	1	1.02679766	19.768057	225	1	1.08444	1.00889;
	147	1	33.852	-2.457	0	0	1	1.05332482	-0.141683	225	1	1.08889	1;
	148	1	0	0	0	0	1	1.05685958	16.84037	225	1	1.08444	1.00889;
	149	1	0	0	0	0	1	1.05679343	16.834421	225	1	1.08444	1.00889;
	150	1	0	0	0	0	1	1.05714443	21.82843	225	1	1.08444	1.00889;
	151	1	0	0	0	0	1	1.05666741	23.967116	380	1	1.10263	1.02895;
	152	1	211.9845	36.1725	0	0	1	1.0282772	-19.233378	225	1	1.08889	0.888889;
	153	1	0	0	0	0	1	1.08222345	11.96941	225	1	1.09766	1;
	154	1	0	0	0	0	1	1.07598535	11.917719	380	1	1.10526	1.05263;
	155	1	29.3475	6.006	0	0	1	1.03862814	-8.29774	225	1	1.08889	0.986667;
	156	1	35.763	2.8665	0	0	1	1.05105901	3.894164	225	1	1.08889	1;
	157	1	0	0	0	0	1	1.04236338	-14.37768	225	1	1.08444	1.00444;
	158	1	0	0	0	0	1	1.04236338	-14.37768	225	1	1.08444	1.00444;
	159	1	0	0	0	0	1	1.04237068	-14.377877	225	1	1.08444	1.00444;
	160	1	75.4845	-15.561	0	0	1	1.04236235	-14.377652	225	1	1.08444	1.00444;
	161	1	0	0	0	0	1	1.03471674	10.54844	225	1	1.08889	0.933333;
	162	1	40.95	16.7895	0	0	1	1.044414	-0.493721	225	1	1.08889	0.986667;
	163	1	0	0	0	-64	1	0.95768764	2.917639	20	1	1.4	0.9;
	164	1	0	0	0	0	1	1.04150672	3.83377	225	1	1.08941	1;
	165	1	0	0	0	0	1	1.05264465	9.107935	380	1	1.10526	1.05263;
	166	2	0	0	0	0	1	1.089175	5.886809	225	1	1.1	0.9;
	167	1	24.297	3.549	0	0	1	1.03205625	8.205703	150	1	1.08	0.966667;
	168	1	34.5345	-4.368	0	0	1	1.03387146	-15.770633	225	1	1.08889	1.00444;
	169	1	-5.0505	-2.73	0	0	1	1.03429796	-15.707788	225	1	1.08889	1.00444;
	170	1	50.9145	0.9555	0	0	1	1.01985083	-21.14975	225	1	1.08889	0.888889;
	171	1	147.2835	5.3235	0	0	1	1.05336136	-0.112408	225	1	1.08889	1;
	172	1	40.2675	9.282	0	0	1	1.04229681	-7.842006	225	1	1.08889	0.986667;
	173	1	0	0	0	0	1	1.07145612	17.184668	380	1	1.10526	1.03947;
	174	1	0	0	0	0	1	1.06910605	17.30649	380	1	1.10526	1.03947;
	175	1	0	0	0	0	1	1.06909508	17.30257	380	1	1.10526	1.03947;
	176	1	0	0	0	0	1	1.0714013	17.173137	380	1	1.10526	1.03947;
	177	1	38.3565	-13.65	0	0	1	1.04272034	-20.641474	225	1	1.08889	0.924444;
	178	1	-2.73	-1.5015	0	0	1	1.04826593	-11.824347	225	1	1.08889	0.986667;
	179	1	89.817	26.0715	0	0	1	1.03416088	-10.038141	225	1	1.08444	1.00444;
	180	1	-3.1395	1.638	0	0	1	1.04282329	0.15839	380	1	1.10263	1.04211;
	181	1	-3.1395	1.911	0	0	1	1.04287506	0.153406	380	1	1.10263	1.04211;
	182	1	0	0	0	0	1	1.03334909	-16.264129	225	1	1.08889	1.00444;
	183	1	0	0	0	0	1	1.04621487	20.077812	225	1	1.08889	0.977778;
	184	1	0	0	0	0	1	1.04622119	20.077734	225	1	1.08889	0.977778;
	185	1	114.114	-11.739	0	0	1	1.03081077	-20.187378	225	1	1.08889	0.968889;
	186	1	0	0	0	0	1	1.03850945	22.590102	225	1	1.08889	0.933333;
	187	1	0	0	0	0	1	1.03684728	22.05425	225	1	1.08889	0.933333;
	188	1	78.4875	13.923	0	0	1	1.04047222	-4.55052	225	1	1.08444	1.00444;
	189	1	242.151	-42.861	0	0	1	1.05676122	-1.326428	225	1	1.08444	1.00444;
	190	1	0	0	0	0	1	1.05440034	21.205715	225	1	1.08889	0.977778;
	191	1	0	0	0	0	1	1.04182716	-0.681764	225	1	1.08444	1.00444;
	192	1	169.533	-4.368	0	0	1	1.03226865	-19.662955	225	1	1.08889	0.951111;
	193	1	48.1845	2.5935	0	0	1	1.03523652	-14.824747	225	1	1.08889	1.00444;
	194	1	70.434	-5.46	0	0	1	1.04796361	-11.712152	225	1	1.08889	0.986667;
	195	1	0	0	0	-64	1	0.98650869	7.663922	20	1	1.4	0.8;
	196	1	23.0685	-2.457	0	0	1	1.03451289	8.281738	225	1	1.08444	1.00889;
	197	1	0	0	0	0	1	1.03834195	10.946037	380	1	1.10263	1.02895;
	198	1	52.689	-0.9555	0	0	1	1.03502857	-14.962031	225	1	1.08889	1.00444;
	199	2	0	0	0	0	1	1.02330187	-19.727548	225	1	1.07859	0.95;
	200	1	0	0	0	0	1	1.02329374	-19.730072	225	1	1.08889	0.888889;
	201	1	233.5515	33.7155	0	0	1	1.04217049	-2.528831	225	1	1.08444	1.00444;
	202	1	63.1995	19.5195	0	0	1	1.04747216	-4.167716	225	1	1.09504	0.986667;
	203	1	79.989	13.377	0	0	1	1.05149649	21.064046	225	1	1.08444	1.00889;
	204	1	19.929	-0.9555	0	0	1	1.05203599	21.746681	225	1	1.08444	1.00889;
	205	1	102.921	34.5345	0	0	1	1.03297263	20.707862	225	1	1.08889	0.933333;
	206	1	0	0	0	0	1	1.06889657	24.910237	380	1	1.10526	1.03947;
	207	1	102.2385	-3.9585	0	0	1	1.0592599	2.017325	380	1	1.10526	1.03947;
	208	1	0	0	0	0	1	1.03567109	21.610172	225	1	1.08889	0.933333;
	209	1	0	0	0	0	1	1.03463869	21.239931	225	1	1.08889	0.933333;
	210	1	75.894	19.7925	0	0	1	1.04546324	26.320558	225	1	1.08444	1.00889;
	211	1	-0.1365	1.092	0	0	1	1.04601205	26.394962	225	1	1.08444	1.00889;
	212	1	15.015	-0.546	0	0	1	1.05106567	22.468912	225	1	1.08444	1.00889;
	213	1	53.6445	7.644	0	0	1	1.04605437	-5.637497	225	1	1.08889	1.00444;
	214	1	29.484	1.911	0	0	1	1.05161532	21.118908	225	1	1.08444	1.00889;
	215	1	22.7955	3.1395	0	0	1	1.05192342	21.182554	225	1	1.08444	1.00889;
	216	1	2.73	-1.911	0	0	1	1.04187434	-20.36639	150	1	1.10667	0.946667;
	217	1	0	0	0	0	1	1.05523975	-12.276315	225	1	1.08444	1.00444;
	218	1	0	0	0	0	1	1.05544636	-7.907183	380	1	1.10263	1.04211;
	219	1	162.8445	-22.386	0	0	1	1.06064554	-6.712706	225	1	1.09795	1;
	220	1	0	0	0	0	1	1.05023933	-2.945408	380	1	1.10526	1.05019;
	221	1	98.4165	8.19	0	0	1	1.03826412	-19.358791	225	1	1.08889	0.911111;
	222	1	0	0	0	0	1	1.0419529	-14.884298	380	1	1.10526	1;
	223	1	21.9765	2.5935	0	0	1	1.04624713	-15.818982	225	1	1.08889	1.00444;
	224	1	20.3385	1.2285	0	0	1	1.03200089	-17.885257	225	1	1.08889	1.00444;
	225	1	8.3265	2.3205	0	0	1	1.04085616	-7.810404	225	1	1.08889	0.986667;
	226	1	1.5015	2.3205	0	0	1	1.04091713	-7.788022	225	1	1.08889	0.986667;
	227	1	2.73	-5.3235	0	0	1	1.04270163	-12.179693	225	1	1.08889	1.00444;
	228	1	3.549	3.276	0	0	1	1.04242197	-12.177723	225	1	1.08889	1.00444;
	229	1	176.085	-4.641	0	0	1	1.03740786	-16.340372	225	1	1.08889	1.00444;
	230	1	0	0	0	0	1	1.04011495	-16.105845	225	1	1.08889	1.00444;
	231	1	35.217	6.006	0	0	1	1.04181019	-13.121186	225	1	1.08889	1.00444;
	232	1	43.5435	4.914	0	0	1	1.04145038	-13.157173	225	1	1.08889	1.00444;
	233	2	5.8695	-1.365	0	0	1	0.98388983	25.0988	20	1	1.1	0.9;
	234	1	0	0	0	0	1	1.05705558	19.717012	150	1	1.08	0.966667;
	235	1	-4.641	-12.9675	0	0	1	1.06834647	3.741123	380	1	1.11402	1.03947;
	236	1	42.1785	10.101	0	0	1	1.06457204	-0.08985	380	1	1.11482	1.03947;
	237	1	15.9705	0.819	0	0	1	1.06438428	4.875401	380	1	1.11264	1.03947;
	238	1	-24.9795	-32.487	0	0	1	1.06580897	4.911957	380	1	1.11483	1.03947;
	239	1	61.425	7.2345	0	0	1	1.03308398	-15.922694	225	1	1.08889	1.00444;
	240	1	0	0	0	-64	1	0.97121372	1.479416	20	1	1.4	0.9;
	241	1	0	0	0	-64	1	0.96975119	1.531593	20	1	1.4	0.9;
	242	1	0	0	0	0	1	1.0572759	1.84079	225	1	1.08889	1;
	243	1	0	0	0	0	1	1.05700817	1.852657	225	1	1.08889	1;
	244	1	0	0	0	0	1	1.07044073	3.96336	380	1	1.10526	1.05019;
	245	1	0.9555	-5.0505	0	0	1	1.0332275	20.703387	225	1	1.08889	0.933333;
	246	1	126.8085	-8.19	0	0	1	1.04889371	-11.162058	380	1	1.10526	1.03537;
	247	1	0	0	0	-58	1	0.98338826	-15.678155	20	1	1.4	0.9;
	248	1	0	0	0	-128	1	0.95206318	-14.717738	20	1	1.4	0.9;
	249	1	0	0	0	-58	1	0.97552709	-15.016694	20	1	1.4	0.9;
	250	1	0	0	0	-58	1	0.97833376	-15.146871	20	1	1.4	0.9;
	251	1	4.368	-1.092	0	0	1	1.04060636	-13.918563	225	1	1.08889	1.00444;
	252	1	5.3235	4.095	0	0	1	1.04298684	-14.058727	225	1	1.08889	1.00444;
	253	1	0	0	0	0	1	1.05539867	-12.785594	225	1	1.08889	1.00444;
	254	1	0	0	0	0	1	1.05098998	-9.859882	380	1	1.10526	1.04211;
	255	1	0	0	0	0	1	1.05051119	-10.034704	380	1	1.10526	1.04211;
	256	1	145.3725	28.2555	0	0	1	1.02962489	-15.627437	225	1	1.08889	0.928889;
	257	1	214.9875	-38.6295	0	0	1	1.05929144	2.003464	380	1	1.10526	1.03947;
	258	1	124.761	-4.368	0	0	1	1.05399669	-0.846904	225	1	1.08444	1.00444;
	259	1	7.5075	-1.7745	0	0	1	1.03406497	20.553773	225	1	1.08889	0.933333;
	260	1	283.92	20.3385	0	0	1	1.06625203	17.790212	380	1	1.10526	1.03947;
	261	1	342.069	30.303	0	0	1	1.03930254	-1.24044	225	1	1.08444	1.00444;
	262	1	0	0	0	0	1	1.04215154	2.741743	380	1	1.10263	1.04211;
	263	1	0	0	0	0	1	1.04216591	2.745881	380	1	1.10263	1.04211;
	264	2	63.336	37.401	0	0	1	1.02701022	-11.277312	20	1	1.06846	0.95;
	265	1	0	0	0	0	1	1.05373684	-10.969791	225	1	1.08889	0.986667;
	266	1	217.4445	55.5555	0	0	1	1.03580447	-0.448386	225	1	1.08889	0.986667;
	267	1	277.2315	5.3235	0	0	1	1.05477478	3.230538	380	1	1.10263	1.04211;
	268	1	68.25	11.3295	0	0	1	1.0455101	-7.790163	225	1	1.09611	0.986667;
	269	1	24.024	-3.276	0	0	1	1.06388229	-9.737316	225	1	1.08889	1.00444;
	270	1	30.9855	-3.9585	0	0	1	1.0342469	-16.807444	225	1	1.08889	1.00444;
	271	1	0	0	0	0	1	1.07507894	12.84373	20	1	1.4	0.9;
	272	1	49.413	-30.4395	0	0	1	1.06447171	13.491474	225	1	1.08889	0.933333;
	273	1	231.3675	32.8965	0	0	1	1.05721617	16.486251	380	1	1.10526	1.03947;
	274	1	0	0	0	0	1	1.03791036	2.877045	225	1	1.08959	1;
	275	1	0	0	0	0	1	1.04172665	3.831066	225	1	1.08959	1;
	276	1	0	0	0	0	1	1.00908003	13.787595	150	1	1.08	0.966667;
	277	1	35.217	-9.1455	0	0	1	1.04462933	-12.539116	225	1	1.08889	1.00444;
	278	1	89.544	-1.365	0	0	1	1.03476757	-12.948034	225	1	1.08889	1.00444;
	279	1	71.253	1.092	0	0	1	1.06094083	2.515402	225	1	1.08889	0.933333;
	280	1	26.8905	-1.092	0	0	1	1.03080317	-4.914554	225	1	1.08444	1.00444;
	281	1	24.024	2.73	0	0	1	1.0308015	-4.914191	225	1	1.08444	1.00444;
	282	1	80.262	-1.092	0	0	1	1.03607495	-12.112308	225	1	1.08889	1.00444;
	283	1	0	0	0	-64	1	0.97768865	-10.989347	20	1	1.4	0.9;
	284	1	147.966	-18.018	0	0	1	1.03669708	-10.530036	225	1	1.08889	1.00444;
	285	1	0	0	0	0	1	1.04335661	-8.511318	380	1	1.10526	1.04211;
	286	1	0	0	0	0	1	1.04359039	-8.505552	380	1	1.10526	1.04211;
	287	1	0	0	0	0	1	1.04845627	-7.021083	380	1	1.10526	1.04211;
	288	1	0	0	0	0	1	1.04347412	-8.508438	380	1	1.10526	1.04211;
	289	1	219.6285	2.184	0	0	1	1.05333938	-1.453537	225	1	1.08444	1.00444;
	290	1	0	0	0	0	1	1.03832341	-16.0604	380	1	1.10526	1;
	291	1	46.956	9.009	0	0	1	1.04485022	-12.644421	225	1	1.08889	1.00444;
	292	1	0	0	0	0	1	1.03352147	-16.894578	225	1	1.08889	1.00444;
	293	1	0	0	0	0	1	1.07327436	13.464982	380	1	1.10526	1.03947;
	294	1	0	0	0	0	1	1.05387583	7.362282	380	1	1.10263	1.04211;
	295	1	0	0	0	0	1	1.05392864	7.36328	380	1	1.10263	1.04211;
	296	1	0	0	0	0	1	1.05392882	7.36328	380	1	1.10263	1.04211;
	297	1	251.433	-25.7985	0	0	1	1.05291789	-3.053286	225	1	1.08444	1.00444;
	298	1	-21.294	-23.478	0	0	1	1.05503765	-8.493735	380	1	1.11618	1;
	299	1	-31.668	0.819	0	0	1	1.05353397	-9.053892	380	1	1.11703	1;
	300	1	57.603	-0.9555	0	0	1	1.02903184	-15.94609	225	1	1.08889	0.888889;
	301	1	0	0	0	-64	1	0.96973232	-12.486972	20	1	1.4	0.9;
	302	1	0	0	0	0	1	1.03699504	-11.471956	225	1	1.08889	1.00444;
	303	1	0	0	0	0	1	1.04213754	-7.569358	380	1	1.10526	1.04211;
	304	1	132.2685	-38.493	0	0	1	1.06743584	0.802532	225	1	1.09445	1;
	305	1	-2.3205	-4.641	0	0	1	1.04215075	15.373406	380	1	1.10263	1.04211;
	306	1	-14.6055	-4.641	0	0	1	1.04213002	15.34274	380	1	1.10263	1.04211;
	307	1	-9.828	-12.6945	0	0	1	1.05893885	-0.7742	225	1	1.08895	0.933333;
	308	1	119.574	-2.457	0	0	1	1.06435146	-9.832136	225	1	1.08889	1.00444;
	309	1	43.953	10.7835	0	0	1	1.01782852	-22.678661	225	1	1.08889	0.888889;
	310	1	39.039	3.549	0	0	1	1.01804653	-22.674051	225	1	1.08889	0.888889;
	311	1	0	0	0	0	1	1.08501525	11.047956	380	1	1.10526	1.03947;
	312	1	193.284	43.8165	0	0	1	1.05212949	4.057149	225	1	1.08889	1;
	313	1	41.0865	-4.095	0	0	1	1.0343833	-16.78612	225	1	1.08889	1.00444;
	314	1	11.193	6.006	0	0	1	1.03303986	7.050667	150	1	1.10667	0.9;
	315	1	125.034	12.1485	0	0	1	1.04257686	-10.274604	225	1	1.08576	1.00444;
	316	1	3.9585	-13.2405	0	0	1	1.04994287	-1.09317	225	1	1.08889	0.986667;
	317	1	129.129	-7.5075	0	0	1	1.03348564	-18.818528	225	1	1.08889	1.00444;
	318	1	24.1605	8.5995	0	0	1	1.00654971	-1.321754	225	1	1.08889	0.933333;
	319	1	125.307	-20.8845	0	0	1	1.04928318	-14.829511	225	1	1.08444	1.00444;
	320	1	39.585	-2.5935	0	0	1	1.05221314	21.4619	225	1	1.08444	1.00889;
	321	1	30.1665	-7.917	0	0	1	1.0929803	8.585456	20	1	1.4	0.9;
	322	1	35.8995	1.911	0	0	1	1.065274	16.537796	225	1	1.08889	0.933333;
	323	1	144.8265	13.7865	0	0	1	1.07488347	5.428563	225	1	1.08889	0.933333;
	324	1	58.149	9.4185	0	0	1	1.04152559	-13.13138	225	1	1.08889	1.00444;
	325	1	26.6175	6.825	0	0	1	1.03618606	-12.131502	225	1	1.08889	1.00444;
	326	1	24.1605	-3.822	0	0	1	1.03630297	-12.10591	225	1	1.08889	1.00444;
	327	1	64.974	-7.098	0	0	1	1.06225894	-6.38118	225	1	1.08889	1.00444;
	328	1	150.696	-2.73	0	0	1	1.05181141	-6.19965	225	1	1.08889	1.00444;
	329	1	152.7435	48.594	0	0	1	1.01532211	-22.572907	225	1	1.08889	0.888889;
	330	1	298.7985	-29.8935	0	0	1	1.04615649	-2.984074	225	1	1.08444	1.00444;
	331	1	0	0	0	0	1	1.05874161	2.00065	225	1	1.08444	1.00444;
	332	1	-0.819	9.1455	0	0	1	1.0586384	1.945958	225	1	1.08444	1.00444;
	333	1	-1.092	0.4095	0	0	1	1.05934022	2.07952	225	1	1.08444	1.00444;
	334	1	-2.0475	3.4125	0	0	1	1.06414331	0.442224	380	1	1.10263	1.04211;
	335	1	0	0	0	0	1	1.07262737	18.645002	225	1	1.08889	0.933333;
	336	1	46.137	10.5105	0	0	1	1.03401381	-16.842652	225	1	1.08889	1.00444;
	337	1	34.2615	3.4125	0	0	1	1.04484052	-12.755966	225	1	1.08889	1.00444;
	338	1	122.85	1.092	0	-80	1	1.04607762	-15.649083	225	1	1.08889	1.00444;
	339	1	55.419	-10.647	0	0	1	1.05786339	1.238722	225	1	1.08889	0.933333;
	340	1	164.346	12.1485	0	0	1	1.05507722	0.408761	225	1	1.08889	0.933333;
	341	1	0	0	0	0	1	1.0587967	4.271737	380	1	1.10526	1.03947;
	342	1	-2.3205	0.546	0	0	1	1.0586145	1.706995	225	1	1.08444	1.00444;
	343	1	0	0	0	0	1	1.06410702	0.410084	380	1	1.10263	1.04211;
	344	1	129.402	-3.9585	0	0	1	1.03936193	-15.773861	225	1	1.08889	1.00444;
	345	1	-8.463	-15.6975	0	0	1	1.04036678	-15.763024	225	1	1.08889	1.00444;
	346	1	100.8735	-8.463	0	0	1	1.04953964	-5.044193	225	1	1.09066	0.986667;
	347	1	152.334	-11.739	0	0	1	1.04917063	14.466448	225	1	1.08444	1.00889;
	348	2	0	0	0	0	1	1.04378111	9.945575	225	1	1.1	0.9;
	349	2	0	0	0	0	1	1.04352105	8.19723	225	1	1.0841	0.95;
	350	1	0	0	0	0	1	1.07829559	30.636806	380	1	1.10263	1.05526;
	351	1	28.8015	21.294	0	0	1	1.03208652	18.319108	225	1	1.08889	0.933333;
	352	1	73.71	-21.294	0	0	1	1.04447925	-10.976507	225	1	1.08618	1.00444;
	353	1	9.9645	-19.7925	0	0	1	1.06822099	17.541438	225	1	1.08889	0.933333;
	354	1	26.0715	6.825	0	0	1	1.06819652	17.461342	225	1	1.08889	0.933333;
	355	1	0	0	0	0	1	1.06744501	16.87258	225	1	1.08889	0.933333;
	356	1	0	0	0	0	1	1.0810611	22.162827	380	1	1.10526	1.03467;
	357	1	32.6235	-16.5165	0	0	1	1.03726573	-6.014575	225	1	1.08889	0.986667;
	358	1	154.6545	3.9585	0	0	1	1.0404278	-4.747077	225	1	1.08889	0.986667;
	359	1	-17.6085	18.9735	0	0	1	0.975476	1.22889	150	1	1.1	0.9;
	360	1	76.3035	-16.38	0	0	1	1.02603997	-22.682616	225	1	1.08889	0.933333;
	361	1	0	0	0	-80	1	1.02038873	-7.077608	20	1	1.4	0.9;
	362	1	156.702	22.5225	0	0	1	1.02474416	-6.867454	225	1	1.08889	0.986667;
	363	1	0	0	0	0	1	1.05706463	-5.769615	380	1	1.10526	1.03947;
	364	1	71.526	10.374	0	0	1	1.03365905	-16.880569	225	1	1.08889	1.00444;
	365	1	0	0	0	0	1	1.04497539	-12.679679	225	1	1.08889	1.00444;
	366	1	0	0	0	0	1	1.0648772	13.468097	380	1	1.10526	1.03947;
	367	1	0	0	0	0	1	1.06149074	13.737096	380	1	1.10526	1.03947;
	368	1	34.944	7.5075	0	0	1	1.03467591	-14.997186	225	1	1.08889	1.00444;
	369	1	32.8965	3.003	0	0	1	1.03359615	-16.225456	225	1	1.08889	1.00444;
	370	1	-3.9585	-10.101	0	0	1	1.04601176	24.505567	225	1	1.08444	1.00889;
	371	1	0	0	0	0	1	1.02822114	-23.287448	225	1	1.08889	0.888889;
	372	1	70.2975	29.484	0	0	1	1.05467282	13.839067	225	1	1.08889	0.933333;
	373	1	0	0	0	0	1	1.04743918	5.721213	225	1	1.08889	1;
	374	1	0.273	0.1365	0	0	1	1.03326814	23.270621	225	1	1.08444	1.00889;
	375	1	0	0	0	0	1	1.0792558	30.902751	380	1	1.10526	1.05263;
	376	1	0	0	0	0	1	1.0792614	30.905709	380	1	1.10526	1.05263;
	377	1	0	0	0	0	1	1.07931659	30.924847	380	1	1.10526	1.05263;
	378	1	0	0	0	0	1	1.07815506	30.622505	380	1	1.10526	1.05263;
	379	1	17.472	2.184	0	0	1	1.05488026	0.279255	225	1	1.08889	0.933333;
	380	1	0	0	0	0	1	1.05661053	19.548748	150	1	1.08	0.966667;
	381	1	103.74	0.4095	0	0	1	1.04411499	20.852667	225	1	1.08444	1.00889;
	382	1	123.669	22.113	0	0	1	1.06227628	3.657066	225	1	1.08889	1;
	383	1	0	0	0	0	1	1.06942019	9.160907	380	1	1.10526	1.05263;
	384	1	1.911	-0.546	0	0	1	1.03322621	-15.121896	225	1	1.08889	0.888889;
	385	1	0	0	0	0	1	1.05543939	18.867619	225	1	1.08444	1.00889;
	386	1	14.0595	-1.7745	0	0	1	1.03935828	0.853367	225	1	1.08889	0.986667;
	387	1	95.823	12.4215	0	0	1	1.05452501	-1.664974	225	1	1.09515	0.986667;
	388	1	61.152	-34.125	0	0	1	1.06178338	11.07421	225	1	1.08889	0.933333;
	389	2	0	0	0	0	1	1.00415572	21.98224	20	1	1.1	0.9;
	390	1	0	0	0	0	1	1.05674266	19.560695	150	1	1.08	0.966667;
	391	1	218.127	-2.5935	0	0	1	1.03081089	-4.911653	225	1	1.08444	1.00444;
	392	1	72.2085	24.843	0	0	1	1.03288429	-11.410089	225	1	1.09125	0.906667;
	393	1	0	0	0	0	1	1.04791739	26.16078	225	1	1.08889	0.977778;
	394	1	0	0	0	0	1	1.04780476	26.459526	225	1	1.08889	0.977778;
	395	1	45.045	15.6975	0	0	1	1.04539385	-15.876066	225	1	1.08889	1.00444;
	396	1	102.102	12.831	0	0	1	1.03375664	-16.052148	225	1	1.08889	1.00444;
	397	1	34.5345	-26.481	0	0	1	1.02027433	-22.645132	225	1	1.08889	0.92;
	398	1	0	0	0	0	1	1.0347595	-12.444497	225	1	1.08889	1.00444;
	399	1	206.934	10.7835	0	0	1	1.03460982	-11.116525	225	1	1.08889	1.00444;
	400	1	38.3565	1.365	0	0	1	1.03634349	-14.34877	225	1	1.08889	1.00444;
	401	1	66.339	-24.024	0	0	1	1.06006512	11.280162	225	1	1.08889	0.933333;
	402	1	141.2775	-2.8665	0	0	1	1.05348022	-5.010758	225	1	1.08449	1.00444;
	403	1	24.4335	3.549	0	0	1	1.04493701	-12.726875	225	1	1.09028	1.00444;
	404	1	0	0	0	0	1	1.05231336	-1.794575	225	1	1.09787	0.986667;
	405	1	61.971	6.279	0	0	1	1.03795412	7.724075	225	1	1.08444	1.00889;
	406	1	80.9445	-2.184	0	0	1	1.05229837	-1.80945	225	1	1.09778	0.986667;
	407	1	190.008	-8.5995	0	0	1	1.04952061	-4.861451	225	1	1.08994	0.986667;
	408	1	133.6335	19.5195	0	0	1	1.03602107	23.854734	225	1	1.08444	1.00889;
	409	1	54.327	15.561	0	0	1	1.06412712	13.042892	225	1	1.08889	0.933333;
	410	1	16.926	-16.38	0	0	1	1.04936285	-4.872641	225	1	1.08889	0.986667;
	411	1	91.8645	-66.612	0	0	1	1.0377721	-2.327262	225	1	1.08444	1.00444;
	412	1	0	0	0	0	1	1.04440963	-2.082668	380	1	1.10263	1.04211;
	413	1	75.348	28.8015	0	0	1	1.02061938	-17.23533	225	1	1.08889	0.906667;
	414	1	73.983	-35.3535	0	0	1	1.05925459	-0.282481	225	1	1.08889	1;
	415	1	40.2675	6.6885	0	0	1	1.06430127	-9.509209	225	1	1.08889	1.00444;
	416	1	4.7775	-7.7805	0	0	1	1.04602869	26.39469	225	1	1.08444	1.00889;
	417	1	0	0	0	0	1	1.04197096	-20.356396	150	1	1.10667	0.946667;
	418	1	6.8e-05	-0.6825	0	0	1	1.01836082	-22.617312	225	1	1.08889	0.888889;
	419	1	40.677	-1.092	0	0	1	1.0552751	13.299886	225	1	1.08889	0.933333;
	420	1	21.294	-0.4095	0	0	1	1.03128025	-19.201508	225	1	1.08889	0.888889;
	421	1	0	0	0	0	1	1.01485276	-24.084284	225	1	1.08889	0.888889;
	422	1	0	0	0	0	1	1.09889846	1.51704	380	1	1.10526	1.03947;
	423	1	88.8615	1.911	0	0	1	1.03450604	-8.658399	225	1	1.08889	0.986667;
	424	1	113.1585	74.1195	0	0	1	1.02505776	36.430641	225	1	1.04444	0.982222;
	425	1	0	0	0	0	1	1.04294201	-13.093957	225	1	1.08444	1.00444;
	426	1	150.15	-10.92	0	0	1	1.05409004	1.079246	225	1	1.08444	1.00444;
	427	1	0	0	0	0	1	1.05563281	5.414673	380	1	1.10263	1.04211;
	428	1	0	0	0	0	1	1.03873793	-14.912884	225	1	1.15556	0.888889;
	429	1	0	0	0	0	1	1.04019712	-14.784617	225	1	1.15556	0.888889;
	430	1	80.808	-15.015	0	0	1	1.03427018	-14.306046	225	1	1.08444	1.00444;
	431	1	0	0	0	-64	1	0.9929038	-2.340781	20	1	1.05	0.991275;
	432	1	115.206	-33.579	0	0	1	1.04745938	-1.996115	225	1	1.08444	1.00444;
	433	1	124.488	8.3265	0	0	1	1.06010799	-0.48834	380	1	1.10263	1.04211;
	434	1	0	0	0	0	1	1.06746632	7.664502	225	1	1.08889	1;
	435	1	0	0	0	0	1	1.07683108	14.243873	380	1	1.10526	1.05263;
	436	1	81.627	11.739	0	0	1	1.03223812	1.093713	225	1	1.08889	1;
	437	1	35.217	1.5015	0	0	1	1.05114932	-1.45314	225	1	1.08444	1.00444;
	438	1	25.389	8.463	0	0	1	1.01917178	-22.737294	225	1	1.08889	0.888889;